<?xml version="1.0" encoding="UTF-8"?>

<!-- generated on 2025-05-18 13:10:00 by Eclipse SUMO netedit Version 1.12.0
-->

<routes xmlns:xsi="http://www.w3.org/2001/XMLSchema-instance" xsi:noNamespaceSchemaLocation="http://sumo.dlr.de/xsd/routes_file.xsd">
    <trip id="WEBOTS_VEHICLE1" depart="0.00" color="green" from="-0" to="-8" via="1 -2 3 -4 -5 -6 -7 8 -9 10 -11 12 -13 14 -15 7 6 5 4 -3 2 -1 0 15 -14 13 -12 11 -10 9"/>
    <trip id="WEBOTS_VEHICLE2" depart="0.00" color="red" from="15" to="-7" via="-14 13 -12 11 -10 9 -8 7 6 5 4 -3 2 -1 0 8 -9 10 -11 12 -13 14 -15 -0 1 -2 3 -4 -5 -6"/>
    <trip id="WEBOTS_VEHICLE3" depart="0.00" color="blue" from="7" to="-8" via="6 5 4 -3 2 -1 0 8 -9 10 -11 12 -13 14 -15 -0 1 -2 3 -4 -5 -6 -7 15 -14 13 -12 11 -10 9"/>
    <trip id="WEBOTS_VEHICLE4" depart="0.00" color="orange" from="8" to="0" via="-9 10 -11 12 -13 14 -15 -0 1 -2 3 -4 -5 -6 -7 15 -14 13 -12 11 -10 9 -8 7 6 5 4 -3 2 -1"/>
</routes>
