<routes xmlns:xsi="http://www.w3.org/2001/XMLSchema-instance" xsi:noNamespaceSchemaLocation="http://sumo.dlr.de/xsd/routes_file.xsd">
  <route id="1" edges="0"/>
  <vType id="car" minGap="5"/>
  <vType id="trailer" accel="0.8" decel="4.5" sigma="0.8" length="14" minGap="8" maxSpeed="20" guiShape="truck" vClass="trailer"/>
  <vehicle id="vehicle(0)" type="car" route="1" depart="0.800000" departLane="random"/>
  <vehicle id="vehicle(1)" type="car" route="1" depart="2.400000" departLane="random"/>
  <vehicle id="vehicle(2)" type="trailer" route="1" depart="4.000000" departLane="random"/>
  <vehicle id="vehicle(3)" type="car" route="1" depart="5.600000" departLane="random"/>
  <vehicle id="vehicle(4)" type="car" route="1" depart="7.200000" departLane="random"/>
  <vehicle id="vehicle(5)" type="car" route="1" depart="8.800000" departLane="random"/>
  <vehicle id="vehicle(6)" type="car" route="1" depart="10.400000" departLane="random"/>
  <vehicle id="vehicle(7)" type="car" route="1" depart="12.000000" departLane="random"/>
  <!-- <vehicle id="vehicle(8)" type="car" route="1" depart="13.600000" departLane="random"/>
  <vehicle id="vehicle(9)" type="car" route="1" depart="15.200000" departLane="random"/> -->
</routes>
